CM --- NEC2 Input File created or edited by xnec2c 3.5 ---
CM 40 meter JS8 and SSB
CM Center Loaded 19 foot vertical, 4 radials  with FT23-43
CM Tacmini is 19 feet. Use a 1:1 transformer at the base.
CE --- End Comments ---
GW     1    20   0.00000E+00  0.00000E+00  0.00000E+00  0.00000E+00  0.00000E+00  5.80000  1.20000E-03
GE     1     0   0.00000E+00  0.00000E+00  0.00000E+00  0.00000E+00  0.00000E+00  0.00000E+00  0.00000E+00
GN     0     4     0      0  5.80000E+01  5.00000E-02  1.20000E-03  1.00000E-02  0.00000E+00  0.00000E+00
FR     0   107     0      0  7.07800E+00  2.09434E-03  7.30000E+00  0.00000E+00  0.00000E+00  0.00000E+00
EX     0     1     1      0  1.00000E+00  0.00000E+00  0.00000E+00  0.00000E+00  0.00000E+00  0.00000E+00
LD     0     1    10      0  0.00000E+00  1.58000E-06  3.30000E-11  0.00000E+00  0.00000E+00  0.00000E+00
RP     0    19    37   1000  0.00000E+00  0.00000E+00  5.00000E+00  1.00000E+01  0.00000E+00  0.00000E+00
NE     0    20    20      1  0.00000E+00  0.00000E+00 -1.00000E-02  2.60000E-01  2.60000E-01  2.60000E-01
EN     0     0     0      0  0.00000E+00  0.00000E+00  0.00000E+00  0.00000E+00  0.00000E+00  0.00000E+00
