CM --- NEC2 Input File created or edited by xnec2c 3.5 ---
CE --- End Comments ---
GW     1    20   0.00000E+00  0.00000E+00  0.00000E+00  0.00000E+00  0.00000E+00  7.62000E+00  5.00000E-04
GE     1     0   0.00000E+00  0.00000E+00  0.00000E+00  0.00000E+00  0.00000E+00  0.00000E+00  0.00000E+00
EX     0     1     1      0  1.00000E+00  0.00000E+00  0.00000E+00  0.00000E+00  0.00000E+00  0.00000E+00
GN     0     4     0      0  1.20000E+01  1.00000E-02  5.80000E+00  5.00000E-04  0.00000E+00  0.00000E+00
FR     0   107     0      0  7.07800E+00  2.09434E-03  7.30000E+00  0.00000E+00  0.00000E+00  0.00000E+00
RP     0    19    37   1000  0.00000E+00  0.00000E+00  5.00000E+00  1.00000E+01  0.00000E+00  0.00000E+00
NE     0    20    20      1  0.00000E+00  0.00000E+00 -1.00000E-02  2.60000E-01  2.60000E-01  2.60000E-01
LD     0     1     5      0  0.00000E+00  3.50000E-05  1.70000E-11  0.00000E+00  0.00000E+00  0.00000E+00
EN     0     0     0      0  0.00000E+00  0.00000E+00  0.00000E+00  0.00000E+00  0.00000E+00  0.00000E+00
