CE 
GW     1    50   0.00000E+00  0.00000E+00  5.00000E-03  0.00000E+00  0.00000E+00  5.18600E+00  1.02000E-03
GW     2    50   0.00000E+00  0.00000E+00  0.00000E+00  5.18000E+00  0.00000E+00  0.00000E+00  1.02000E-03
GM     3     4   0.00000E+00  0.00000E+00  7.20000E+01  0.00000E+00  0.00000E+00  0.00000E+00  2.00000E+00
GE     0     0   0.00000E+00  0.00000E+00  0.00000E+00  0.00000E+00  0.00000E+00  0.00000E+00  0.00000E+00
EX     0     2     1      0 -1.00000E+00  0.00000E+00  0.00000E+00  0.00000E+00  0.00000E+00  0.00000E+00
EX     0     1     1      0  1.00000E+00  0.00000E+00  0.00000E+00  0.00000E+00  0.00000E+00  0.00000E+00
GN     0     0     0      0  1.20000E+01  1.00000E-02  0.00000E+00  0.00000E+00  0.00000E+00  0.00000E+00
RP     0    45    72    100  0.00000E+00  0.00000E+00  2.00000E+00  5.00000E+00  0.00000E+00  0.00000E+00
LD     0     1    25     26  7.00000E+02  2.00000E-05  1.20000E-11  0.00000E+00  0.00000E+00  0.00000E+00
FR     0    24     0      0  7.07000E+00  1.00000E-02  7.30000E+00  0.00000E+00  0.00000E+00  0.00000E+00
EN     0     0     0      0  0.00000E+00  0.00000E+00  0.00000E+00  0.00000E+00  0.00000E+00  0.00000E+00
