CM --- NEC2 Input File created or edited by xnec2c 4.1.1 ---
CE --- End Comments ---
GW     1   100   0.00000E+00  0.00000E+00  5.18160E+03  8.59800E+03  0.00000E+00  5.00000E+01  1.00000E+00
GW     2   100   0.00000E+00  0.00000E+00  5.18160E+03 -8.59800E+03  0.00000E+00  5.00000E+01  1.00000E+00
GE     0     0   0.00000E+00  0.00000E+00  0.00000E+00  0.00000E+00  0.00000E+00  0.00000E+00  0.00000E+00
EX     0     1     1      0  1.00000E+00  0.00000E+00  0.00000E+00  0.00000E+00  0.00000E+00  0.00000E+00
GN     1     0     0      0  0.00000E+00  0.00000E+00  0.00000E+00  0.00000E+00  0.00000E+00  0.00000E+00
FR     0   122     0      0  7.07800E+00  1.42149E-03  7.25000E+00  0.00000E+00  0.00000E+00  0.00000E+00
RP     0 22 90      0  0.00000E+00  0.00000E+00 4 4  0.00000E+00  0.00000E+00
EN     0     0     0      0  0.00000E+00  0.00000E+00  0.00000E+00  0.00000E+00  0.00000E+00  0.00000E+00
