CM --- NEC2 Input File created or edited by xnec2c 4.1.1 ---
CE --- End Comments ---
GW     1    50   0.00000E+00  0.00000E+00  5.18160E+03 8762.9  0.00000E+00 0  1.30000E-03
GW     2    50   0.00000E+00  0.00000E+00  5.18160E+03 -8762.9  0.00000E+00 0  1.30000E-03
GE     0     0   0.00000E+00  0.00000E+00  0.00000E+00  0.00000E+00  0.00000E+00  0.00000E+00  0.00000E+00
EX     0     1     1      0  1.00000E+00  0.00000E+00  0.00000E+00  0.00000E+00  0.00000E+00  0.00000E+00
GN     1     0     0      0  0.00000E+00  0.00000E+00  0.00000E+00  0.00000E+00  0.00000E+00  0.00000E+00
FR     0   101     0      0  7.00000E+00  2.25000E-03  7.22500E+00  0.00000E+00  0.00000E+00  0.00000E+00
RP     0    18    72      0  0.00000E+00  0.00000E+00  5.00000E+00  5.00000E+00  0.00000E+00  0.00000E+00
EN     0     0     0      0  0.00000E+00  0.00000E+00  0.00000E+00  0.00000E+00  0.00000E+00  0.00000E+00
