CM  2 element Yagi at about 1/2 wavelength above ground (20m)
CE End Comments
GW     1    25  0.00E+00    -5.360E+00     0.00E+00     0.00E+00    5.360E+00      0.00E+00     1.0E-02
GW     2    25  1.70E+00    -4.930E+00     0.00E+00     1.70E+00    4.930E+00      0.00E+00     1.0E-02
GM     0     0  0.00000E+00  0.00000E+00  0.00000E+00  0.00000E+00  0.00000E+00  1.0000E+01  0.00000E+00
GE     0     0  0.00000E+00  0.00000E+00  0.00000E+00  0.00000E+00  0.00000E+00  0.00000E+00  0.00000E+00
FR     0    35     0      0  1.40000E+01  1.00000E-02  0.00000E+00  0.00000E+00  0.00000E+00  0.00000E+00
EX     0     2    13      0  1.00000E+00  0.00000E+00  0.00000E+00  0.00000E+00  0.00000E+00  0.00000E+00
LD     5     0     0      0  3.70000E+07  0.00000E+00  0.00000E+00  0.00000E+00  0.00000E+00  0.00000E+00
NH     0     0     0      0  0.00000E+00  0.00000E+00  0.00000E+00  0.00000E+00  0.00000E+00  0.00000E+00
NE     0    20    15      1 -1.40000E+00 -1.40000E+00  5.00000E-02  2.00000E-01  2.00000E-01  0.00000E+00
RP     0    36    73   1000  0.00000E+00  0.00000E+00  2.40000E+00  5.00000E+00  0.00000E+00  0.00000E+00
GN     2     0     0      0  1.50000E+01  5.00000E-03  0.00000E+00  0.00000E+00  0.00000E+00  0.00000E+00
EN     0     0     0      0  0.00000E+00  0.00000E+00  0.00000E+00  0.00000E+00  0.00000E+00  0.00000E+00
