CM --- NEC2 Input File created or edited by xnec2c 3.3 ---
CE --- End Comments ---
GW     1    99   0.00000E+00  0.00000E+00 -5.00000E+00  0.00000E+00 0.00000E+00  5.00000E+00  1.50000E-02
GW     4     1   1.00000E+01  0.00000E+00  5.00000E-02  1.00000E+01 0.00000E+00 -5.00000E-02  2.00000E-04
GE     0     0   0.00000E+00  0.00000E+00  0.00000E+00  0.00000E+00 0.00000E+00  0.00000E+00  0.00000E+00
TL     4     1     1     50 -7.50000E+01  0.00000E+00  0.00000E+00 0.00000E+00  0.00000E+00  0.00000E+00
EX     0     4     1      0  1.00000E+00  0.00000E+00  0.00000E+00 0.00000E+00  0.00000E+00  0.00000E+00
FR     0    50     0      0  1.00000E+01  2.04082E-01  2.00000E+01 0.00000E+00  0.00000E+00  0.00000E+00
NH     0     0     0      0  0.00000E+00  0.00000E+00  0.00000E+00 0.00000E+00  0.00000E+00  0.00000E+00
NE     0    10     1     10 -1.35000E+00  0.00000E+00 -1.35000E+00 3.00000E-01  0.00000E+00  3.00000E-01
RP     0    19    37   1000  0.00000E+00  0.00000E+00  1.00000E+01 1.00000E+01  0.00000E+00  0.00000E+00
KH     0     0     0      0  0.00000E+00  0.00000E+00  0.00000E+00 0.00000E+00  0.00000E+00  0.00000E+00
EN     0     0     0      0  0.00000E+00  0.00000E+00  0.00000E+00 0.00000E+00  0.00000E+00  0.00000E+00
