CM  Dipole as currently installed
CE End Comments
GW     1    49  0.00E+00    -1.85E+01     4.57E+00     0.00E+00    1.85E+01      4.57E+00     1.0E-03
GW     2    49 -5.20000E+00  4.41000E+00  5.10000E+00 -1.34000E+01  1.16000E+01  5.10000E+00  6.35000E-02
GW     3    49 -1.10000E+01 -2.00000E+00  5.10000E+00 -1.92000E+01  5.16000E+00  5.10000E+00  6.35000E-02
GW     4    49  2.25000E+00  1.28000E+00  3.50000E+00 -4.14000E+00 -7.07000E+00  3.50000E+00  6.35000E-02
GE     1     0  0.00000E+00  0.00000E+00  0.00000E+00  0.00000E+00  0.00000E+00  0.00000E+00  0.00000E+00
FR     0    18     0      0  2.80000E+01  1.00000E-01  0.00000E+00  0.00000E+00  0.00000E+00  0.00000E+00
EX     0     1    25      0  1.00000E+00  0.00000E+00  0.00000E+00  0.00000E+00  0.00000E+00  0.00000E+00
LD     5     0     0      0  3.70000E+07  0.00000E+00  0.00000E+00  0.00000E+00  0.00000E+00  0.00000E+00
NH     0     0     0      0  0.00000E+00  0.00000E+00  0.00000E+00  0.00000E+00  0.00000E+00  0.00000E+00
NE     0    20    15      1 -1.40000E+00 -1.40000E+00  5.00000E-02  2.00000E-01  2.00000E-01  0.00000E+00
RP     0    37    73   1000  0.00000E+00  0.00000E+00  2.40000E+00  5.00000E+00  0.00000E+00  0.00000E+00
GN     2     0     0      0  1.50000E+01  5.00000E-03  0.00000E+00  0.00000E+00  0.00000E+00  0.00000E+00
EN     0     0     0      0  0.00000E+00  0.00000E+00  0.00000E+00  0.00000E+00  0.00000E+00  0.00000E+00
