CM  Force 12 C-3 Antenna from measurements
CE End Comments
GW     1    25  0.00E+00    -5.50E+00     0.00E+00     0.00E+00    5.50E+00      0.00E+00     1.0E-03
GW     2    25  8.64E-01    -3.64E+00     0.00E+00     8.64E-01    3.64E+00      0.00E+00     1.0E-03
GW     3    25  3.03E+00    -3.50E+00     0.00E+00     3.03E+00    3.50E+00      0.00E+00     1.0E-03
GW     4    25  3.31E+00    -5.19E+00     0.00E+00     3.31E+00    5.19E+00      0.00E+00     1.0E-03
GW     5    25  3.43E+00    -2.63E+00     0.00E+00     3.43E+00    2.63E+00      0.00E+00     1.0E-03
GW     6    25  3.72E+00    -2.51E+00     0.00E+00     3.72E+00    2.51E+00      0.00E+00     1.0E-03
GW     7    25  5.40E+00    -2.32E+00     0.00E+00     5.40E+00    2.32E+00      0.00E+00     1.0E-03
GM     0     0  0.00000E+00  0.00000E+00  0.00000E+00  0.00000E+00  0.00000E+00  6.00000E+00  0.00000E+00
GE     0     0  0.00000E+00  0.00000E+00  0.00000E+00  0.00000E+00  0.00000E+00  0.00000E+00  0.00000E+00
FR     0    11     0      0  1.80680E+01  1.00000E-02  0.00000E+00  0.00000E+00  0.00000E+00  0.00000E+00
EX     0     4    13      0  1.00000E+00  0.00000E+00  0.00000E+00  0.00000E+00  0.00000E+00  0.00000E+00
LD     5     0     0      0  3.70000E+07  0.00000E+00  0.00000E+00  0.00000E+00  0.00000E+00  0.00000E+00
NH     0     0     0      0  0.00000E+00  0.00000E+00  0.00000E+00  0.00000E+00  0.00000E+00  0.00000E+00
NE     0    20    15      1 -1.40000E+00 -1.40000E+00  5.00000E-02  2.00000E-01  2.00000E-01  0.00000E+00
RP     0    37    73   1000  0.00000E+00  0.00000E+00  2.40000E+00  5.00000E+00  0.00000E+00  0.00000E+00
GN     2     0     0      0  1.50000E+01  5.00000E-03  0.00000E+00  0.00000E+00  0.00000E+00  0.00000E+00
EN     0     0     0      0  0.00000E+00  0.00000E+00  0.00000E+00  0.00000E+00  0.00000E+00  0.00000E+00
