CM --- NEC2 Input File created by xnec2c-1.2 ---
CM Decoupled Stub antenna, by KG4GVL
CM For 10m, 20m, 40m
CM Adapted from "More Wire Antenna Classics, Vol 2"
CM "Multiband Antennas Using Decoupling Stubs"
CM William J Lattin, W4JRW QST Dec. 1960
CE --- End Comments ---
GW     1    60 -2.43840E+00  0.00000E+00  1.00584E+01  2.43840E+00  0.00000E+00  1.00584E+01  1.50000E-02
GW     2    30  2.43840E+00  0.00000E+00  1.00584E+01  4.54660E+00  0.00000E+00  1.00584E+01  1.50000E-03
GW     3     1  4.54660E+00  0.00000E+00  1.00584E+01  4.54660E+00  0.00000E+00  1.00330E+01  1.50000E-03
GW     4    30  4.54660E+00  0.00000E+00  1.00330E+01  2.46380E+00  0.00000E+00  1.00330E+01  1.50000E-03
GW     5    30 -2.43840E+00  0.00000E+00  1.00584E+01 -4.54660E+00  0.00000E+00  1.00584E+01  1.50000E-03
GW     6     1 -4.54660E+00  0.00000E+00  1.00584E+01 -4.54660E+00  0.00000E+00  1.00330E+01  1.50000E-03
GW     7    30 -4.54660E+00  0.00000E+00  1.00330E+01 -2.46380E+00  0.00000E+00  1.00330E+01  1.50000E-03
GW     8    30  4.54660E+00  0.00000E+00  1.00584E+01  8.76300E+00  0.00000E+00  1.00584E+01  1.50000E-03
GW     9     1  8.76300E+00  0.00000E+00  1.00584E+01  8.76300E+00  0.00000E+00  1.00330E+01  1.50000E-03
GW    10    30  8.76300E+00  0.00000E+00  1.00330E+01  4.57200E+00  0.00000E+00  1.00330E+01  1.50000E-03
GW    11    30 -4.54660E+00  0.00000E+00  1.00584E+01 -8.76300E+00  0.00000E+00  1.00584E+01  1.50000E-03
GW    12     1 -8.76300E+00  0.00000E+00  1.00584E+01 -8.76300E+00  0.00000E+00  1.00330E+01  1.50000E-03
GW    13    30 -8.76300E+00  0.00000E+00  1.00330E+01 -4.57200E+00  0.00000E+00  1.00330E+01  1.50000E-03
GE     0     0  0.00000E+00  0.00000E+00  0.00000E+00  0.00000E+00  0.00000E+00  0.00000E+00  0.00000E+00
EX     0     1    30     0  1.00000E+00  0.00000E+00  0.00000E+00  0.00000E+00  0.00000E+00  0.00000E+00
FR     0   500     0      0  7.00000E+00  4.40882E-02  2.90000E+01  0.00000E+00  0.00000E+00  0.00000E+00
NH     0     0     0      0  0.00000E+00  0.00000E+00  0.00000E+00  0.00000E+00  0.00000E+00  0.00000E+00
NE     0    10     1     10 -1.35000E+00  0.00000E+00 -1.35000E+00  3.00000E-01  0.00000E+00  3.00000E-01
RP     0    45    37      0  0.00000E+00  0.00000E+00  2.00000E+00  1.00000E+01  0.00000E+00  0.00000E+00
GN     2     0     0      0  1.20000E+01  5.00000E-03  0.00000E+00  0.00000E+00  0.00000E+00  0.00000E+00
EN     0     0     0      0  0.00000E+00  0.00000E+00  0.00000E+00  0.00000E+00  0.00000E+00  0.00000E+00
