CM General 6-Band G3TXQ BBHB, converted with 4nec2 on 22-Mar-09 18:43
CM 
CE
GW	1	1	-128	0	406	-121.5	11.2582992	406	0.0255
GW	2	7	-108.5	33.775	406	-64	110.851299	406	0.0255
GW	3	9	-5.6875	9.851	406	-64	110.851299	406	0.0255
GW	4	1	-2.6875	4.65490157	406	-5.6875	9.851	406	0.0255
GW	5	1	-1.1875	2.05679961	406	-2.6875	4.65490157	406	0.0255
GW	6	1	-0.4375	0.7578	406	-1.1875	2.05679961	406	0.0255
GW	7	1	-0.4375	0.7578	406	0.4375	0.7578	406	0.0255
GW	8	1	0.4375	0.7578	406	1.1875	2.05679961	406	0.0255
GW	9	1	1.1875	2.05679961	406	2.6875	4.65490157	406	0.0255
GW	10	1	2.6875	4.65490157	406	5.6875	9.851	406	0.0255
GW	11	9	5.6875	9.851	406	64	110.851299	406	0.0255
GW	12	7	108.5	33.775	406	64	110.851299	406	0.0255
GW	13	1	128	0	406	121.5	11.2582992	406	0.0255
GW	14	11	-128	0	406	-64	-110.8513	406	0.0255
GW	15	11	-64	-110.8513	406	64	-110.8513	406	0.0255
GW	16	11	64	-110.8513	406	128	0	406	0.0255
GW	17	1	-108.5	33.775	406	-109	32.909	406	0.0255
GW	18	1	108.5	33.775	406	109	32.909	406	0.0255
GW	19	1	-121.5	11.2582992	406	-121	12.1244016	406	0.0255
GW	20	1	121.5	11.2582992	406	121	12.1244016	406	0.0255
GW	21	1	-99.571417	0	384	-94.5	8.784	384	0.0255
GW	22	7	-84.25	26.5375	384	-49.785709	86.2314173	384	0.0255
GW	23	9	-5.6875	9.851	384	-49.785709	86.2314173	384	0.0255
GW	24	1	-2.6875	4.65490157	384	-5.6875	9.851	384	0.0255
GW	25	1	-1.1875	2.05679961	384	-2.6875	4.65490157	384	0.0255
GW	26	1	-0.4375	0.7578	384	-1.1875	2.05679961	384	0.0255
GW	27	1	-0.4375	0.7578	384	0.4375	0.7578	384	0.0255
GW	28	1	0.4375	0.7578	384	1.1875	2.05679961	384	0.0255
GW	29	1	1.1875	2.05679961	384	2.6875	4.65490157	384	0.0255
GW	30	1	2.6875	4.65490157	384	5.6875	9.851	384	0.0255
GW	31	9	5.6875	9.851	384	49.7857087	86.2314173	384	0.0255
GW	32	7	84.25	26.5375	384	49.7857087	86.2314173	384	0.0255
GW	33	1	99.5714173	0	384	94.5	8.784	384	0.0255
GW	34	11	-99.571417	0	384	-49.785709	-86.231417	384	0.0255
GW	35	11	-49.785709	-86.231417	384	49.7857087	-86.231417	384	0.0255
GW	36	11	49.7857087	-86.231417	384	99.5714173	0	384	0.0255
GW	37	1	-84.25	26.5375	384	-84.75	25.6715	384	0.0255
GW	38	1	84.25	26.5375	384	84.75	25.6715	384	0.0255
GW	39	1	-94.5	8.784	384	-94	9.65	384	0.0255
GW	40	1	94.5	8.784	384	94	9.65	384	0.0255
GW	41	1	-85.057087	0	378	-80.75	7.46020079	378	0.0255
GW	42	7	-71.75	23.0485984	378	-42.528583	73.6616142	378	0.0255
GW	43	9	-5.6875	9.851	378	-42.528583	73.6616142	378	0.0255
GW	44	1	-2.6875	4.65490157	378	-5.6875	9.851	378	0.0255
GW	45	1	-1.1875	2.05679961	378	-2.6875	4.65490157	378	0.0255
GW	46	1	-0.4375	0.7578	378	-1.1875	2.05679961	378	0.0255
GW	47	1	-0.4375	0.7578	378	0.4375	0.7578	378	0.0255
GW	48	1	0.4375	0.7578	378	1.1875	2.05679961	378	0.0255
GW	49	1	1.1875	2.05679961	378	2.6875	4.65490157	378	0.0255
GW	50	1	2.6875	4.65490157	378	5.6875	9.851	378	0.0255
GW	51	9	5.6875	9.851	378	42.5285827	73.6616142	378	0.0255
GW	52	7	71.75	23.0485984	378	42.5285827	73.6616142	378	0.0255
GW	53	1	85.0570866	0	378	80.75	7.46020079	378	0.0255
GW	54	11	-85.057087	0	378	-42.528583	-73.661614	378	0.0255
GW	55	11	-42.528583	-73.661614	378	42.5285827	-73.661614	378	0.0255
GW	56	11	42.5285827	-73.661614	378	85.0570866	0	378	0.0255
GW	57	1	-71.75	23.0485984	378	-72.25	22.1826024	378	0.0255
GW	58	1	71.75	23.0485984	378	72.25	22.1826024	378	0.0255
GW	59	1	-80.75	7.46020079	378	-80.25	8.32620079	378	0.0255
GW	60	1	80.75	7.46020079	378	80.25	8.32620079	378	0.0255
GW	61	1	-71.771417	0	372	-68.1	6.35909843	372	0.0255
GW	62	7	-60.35	19.7825	372	-35.885701	62.1559055	372	0.0255
GW	63	9	-5.6875	9.851	372	-35.885701	62.1559055	372	0.0255
GW	64	1	-2.6875	4.65490157	372	-5.6875	9.851	372	0.0255
GW	65	1	-1.1875	2.05679961	372	-2.6875	4.65490157	372	0.0255
GW	66	1	-0.4375	0.7578	372	-1.1875	2.05679961	372	0.0255
GW	67	1	-0.4375	0.7578	372	0.4375	0.7578	372	0.0255
GW	68	1	0.4375	0.7578	372	1.1875	2.05679961	372	0.0255
GW	69	1	1.1875	2.05679961	372	2.6875	4.65490157	372	0.0255
GW	70	1	2.6875	4.65490157	372	5.6875	9.851	372	0.0255
GW	71	9	5.6875	9.851	372	35.8857008	62.1559055	372	0.0255
GW	72	7	60.35	19.7825	372	35.8857008	62.1559055	372	0.0255
GW	73	1	71.7714173	0	372	68.1	6.35909843	372	0.0255
GW	74	11	-71.771417	0	372	-35.885701	-62.155906	372	0.0255
GW	75	11	-35.885701	-62.155906	372	35.8857008	-62.155906	372	0.0255
GW	76	11	35.8857008	-62.155906	372	71.7714173	0	372	0.0255
GW	77	1	-60.35	19.7825	372	-60.85	18.9165	372	0.0255
GW	78	1	60.35	19.7825	372	60.85	18.9165	372	0.0255
GW	79	1	-68.1	6.35909843	372	-67.6	7.22509843	372	0.0255
GW	80	1	68.1	6.35909843	372	67.6	7.22509843	372	0.0255
GW	81	1	-63.142913	0	368	-59.9	5.61679921	368	0.0255
GW	82	7	-52.9	17.7411024	368	-31.571402	54.6833071	368	0.0255
GW	83	9	-5.6875	9.851	368	-31.571402	54.6833071	368	0.0255
GW	84	1	-2.6875	4.65490157	368	-5.6875	9.851	368	0.0255
GW	85	1	-1.1875	2.05679961	368	-2.6875	4.65490157	368	0.0255
GW	86	1	-0.4375	0.7578	368	-1.1875	2.05679961	368	0.0255
GW	87	1	-0.4375	0.7578	368	0.4375	0.7578	368	0.0255
GW	88	1	0.4375	0.7578	368	1.1875	2.05679961	368	0.0255
GW	89	1	1.1875	2.05679961	368	2.6875	4.65490157	368	0.0255
GW	90	1	2.6875	4.65490157	368	5.6875	9.851	368	0.0255
GW	91	9	5.6875	9.851	368	31.5714016	54.6833071	368	0.0255
GW	92	7	52.9	17.7411024	368	31.5714016	54.6833071	368	0.0255
GW	93	1	63.1429134	0	368	59.9	5.61679921	368	0.0255
GW	94	11	-63.142913	0	368	-31.571402	-54.683307	368	0.0255
GW	95	11	-31.571402	-54.683307	368	31.5714016	-54.683307	368	0.0255
GW	96	11	31.5714016	-54.683307	368	63.1429134	0	368	0.0255
GW	97	1	-52.9	17.7411024	368	-53.4	16.8750984	368	0.0255
GW	98	1	52.9	17.7411024	368	53.4	16.8750984	368	0.0255
GW	99	1	-59.9	5.61679921	368	-59.4	6.48279921	368	0.0255
GW	100	1	59.9	5.61679921	368	59.4	6.48279921	368	0.0255
GW	101	1	-37.974299	0	364	-35.231	4.7515	364	0.0255
GW	102	7	-30.856	12.3292008	364	-18.987102	32.8866969	364	0.0255
GW	103	9	-5.6875	9.851	364	-18.987102	32.8866969	364	0.0255
GW	104	1	-2.6875	4.65490157	364	-5.6875	9.851	364	0.0255
GW	105	1	-1.1875	2.05679961	364	-2.6875	4.65490157	364	0.0255
GW	106	1	-0.4375	0.7578	364	-1.1875	2.05679961	364	0.0255
GW	107	1	-0.4375	0.7578	364	0.4375	0.7578	364	0.0255
GW	108	1	0.4375	0.7578	364	1.1875	2.05679961	364	0.0255
GW	109	1	1.1875	2.05679961	364	2.6875	4.65490157	364	0.0255
GW	110	1	2.6875	4.65490157	364	5.6875	9.851	364	0.0255
GW	111	9	5.6875	9.851	364	18.9871024	32.8866969	364	0.0255
GW	112	7	30.856	12.3292008	364	18.9871024	32.8866969	364	0.0255
GW	113	1	37.9742992	0	364	35.231	4.7515	364	0.0255
GW	114	11	-37.974299	0	364	-18.987102	-32.886697	364	0.0255
GW	115	11	-18.987102	-32.886697	364	18.9871024	-32.886697	364	0.0255
GW	116	11	18.9871024	-32.886697	364	37.9742992	0	364	0.0255
GW	117	1	-30.856	12.3292008	364	-31.356	11.4632008	364	0.0255
GW	118	1	30.856	12.3292008	364	31.356	11.4632008	364	0.0255
GW	119	1	-35.231	4.7515	364	-34.730996	5.6175	364	0.0255
GW	120	1	35.231	4.7515	364	34.7309961	5.6175	364	0.0255
GS	0	0	0.0254
GE	-1
GN	3	0	0	0	20	0.0303
EK
EX	6	7	1	0	1	0		
TL	7	1	27	1	50	0.846667				
TL	27	1	47	1	50	0.230909				
TL	47	1	67	1	50	0.230909				
TL	67	1	87	1	50	0.153939				
TL	87	1	107	1	50	0.153939				
FR	0	0	0	0	50.5	0
EN
