CM  Hexbeam
CE End Comments
GW      1    1  -108.5      33.775       406          -109          32.909       406          0.0255
GW      2    7  -108.5      33.775       406           -64        110.851299     406          0.0255
GW      3    9    -5.6875    9.851       406           -64        110.851299     406          0.0255
GW      4    1    -2.6875    4.65490157  406            -5.6875     9.851        406          0.0255
GW      5    1    -1.1875    2.05679961  406            -2.6875     4.65490157   406          0.0255
GW      6    1    -0.4375    0.7578      406            -1.1875     2.05679961   406          0.0255
GW      7    1    -0.4375    0.7578      406             0.4375     0.7578       406          0.0255
GW      8    1     0.4375    0.7578      406             1.1875     2.05679961   406          0.0255
GW      9    1     1.1875    2.05679961  406             2.6875     4.65490157   406          0.0255
GW     10    1     2.6875    4.65490157  406             5.6875     9.851        406          0.0255
GW     11    9     5.6875    9.851       406            64        110.851299     406          0.0255
GW     12    7   108.5      33.775       406            64        110.851299     406          0.0255
GW     13    1   108.5      33.775       406           109          32.909       406          0.0255
GW     14    1  -121.5      11.2582992   406          -121          12.1244016   406          0.0255
GW     15    1  -128         0           406          -121.5       11.2582992    406          0.0255
GW     16   11  -128         0           406           -64       -110.8513       406          0.0255
GW     17   11   -64      -110.8513      406            64       -110.8513       406          0.0255
GW     18   11    64      -110.8513      406           128           0           406          0.0255
GW     19    1   128         0           406           121.5       11.2582992    406          0.0255
GW     20    1   121.5      11.2582992   406           121          12.1244016   406          0.0255
GS	0	0	0.0255
GE     1     0  0.00000E+00  0.00000E+00  0.00000E+00  0.00000E+00  0.00000E+00  0.00000E+00  0.00000E+00
FR     0    36     0      0  1.40000E+01  1.00000E-02  0.00000E+00  0.00000E+00  0.00000E+00  0.00000E+00
EX     0     7     1      0  1.00000E+00  0.00000E+00  0.00000E+00  0.00000E+00  0.00000E+00  0.00000E+00
LD     5     0     0      0  3.70000E+07  0.00000E+00  0.00000E+00  0.00000E+00  0.00000E+00  0.00000E+00
NH     0     0     0      0  0.00000E+00  0.00000E+00  0.00000E+00  0.00000E+00  0.00000E+00  0.00000E+00
NE     0    20    15      1 -1.40000E+00 -1.40000E+00  5.00000E-02  2.00000E-01  2.00000E-01  0.00000E+00
RP     0    37    73   1000  0.00000E+00  0.00000E+00  2.40000E+00  5.00000E+00  0.00000E+00  0.00000E+00
GN     2     0     0      0  1.50000E+01  5.00000E-03  0.00000E+00  0.00000E+00  0.00000E+00  0.00000E+00
EN     0     0     0      0  0.00000E+00  0.00000E+00  0.00000E+00  0.00000E+00  0.00000E+00  0.00000E+00
