CM A simple vertical wire over a ground plane
CE End Comments
GW     1    32  0.00000E+00  0.00000E+00  0.00000E+00  0.00000E+00  0.00000E+00  7.50000E+00  2.50000E-02
GE     1     0  0.00000E+00  0.00000E+00  0.00000E+00  0.00000E+00  0.00000E+00  0.00000E+00  0.00000E+00
EX     0     1     1      0  1.00000E+00  0.00000E+00  0.00000E+00  0.00000E+00  0.00000E+00  0.00000E+00
FR     0    19     0      0  6.00000E+00  5.00000E-01  0.00000E+00  0.00000E+00  0.00000E+00  0.00000E+00
GN     0    32     0      0  1.20000E+01  5.00000E-02  1.00000E+01  5.00000E-03  0.00000E+00  0.00000E+00
NH     0     0     0      0  0.00000E+00  0.00000E+00  0.00000E+00  0.00000E+00  0.00000E+00  0.00000E+00
NE     0     1    20     15  0.00000E+00 -9.50000E+00  5.00000E-01  0.00000E+00  1.00000E+00  1.00000E+00
RP     0    19    37   1000  0.00000E+00  0.00000E+00  5.00000E+00  1.00000E+01  0.00000E+00  0.00000E+00
EN     0     0     0      0  0.00000E+00  0.00000E+00  0.00000E+00  0.00000E+00  0.00000E+00  0.00000E+00
