CM ON6MU antenna design
CM Adjusted manually by scaling to get a center f of 145MHz
CM Thicker driven element to flatten SWR
CM http://www.dxzone.com/cgi-bin/dir/jump2.cgi?ID=20267
CM http://sv1bsx.50webs.com/antenna-pol/polarization.html
CM Strip down to only driven element to compare with prototype contruction
CE End Comments
GW     1    25  3.98000E-01  4.85000E-01  0.00000E+00  3.98000E-01 -4.85000E-01  0.00000E+00  1.57500E-02
GM     0     0  0.00000E+00  0.00000E+00  0.00000E+00 0.00000E+00  0.00000E+00  0.00000E+00  0.00000E+00
GE     0     0  0.00000E+00  0.00000E+00  0.00000E+00  0.00000E+00  0.00000E+00  0.00000E+00  0.00000E+00
FR     0    100     0      0  1.36000E+02  1.00000E-01  0.00000E+00  0.00000E+00  0.00000E+00  0.00000E+00
EX     0     1    13      0  1.00000E+00  0.00000E+00  0.00000E+00  0.00000E+00  0.00000E+00  0.00000E+00
LD     5     0     0      0  3.70000E+07  0.00000E+00  0.00000E+00  0.00000E+00  0.00000E+00  0.00000E+00
NH     0     0     0      0  0.00000E+00  0.00000E+00  0.00000E+00  0.00000E+00  0.00000E+00  0.00000E+00
NE     0    20    15      1 -1.40000E+00 -1.40000E+00  5.00000E-02  2.00000E-01  2.00000E-01  0.00000E+00
RP     0    37    73   1000  0.00000E+00  0.00000E+00  5.00000E+00  5.00000E+00  0.00000E+00  0.00000E+00
EN     0     0     0      0  0.00000E+00  0.00000E+00  0.00000E+00  0.00000E+00  0.00000E+00  0.00000E+00
