CM ON6MU antenna design
CM Adjuested manually by scaling to get a center f of 145MHz
CM Thicker driven element to flatten SWR
CM Crossed elements offset by 20mm in X dimension
CM http://www.dxzone.com/cgi-bin/dir/jump2.cgi?ID=20267
CM http://sv1bsx.50webs.com/antenna-pol/polarization.html
CM FR     0    20     0      0  1.44000E+02  1.00000E-01  0.00000E+00  0.00000E+00  0.00000E+00  0.00000E+00
CE End Comments
GW    1     25  0.00000E+00  5.03004E-01  0.00000E+00  0.00000E+00 -5.03004E-01  0.00000E+00 3.17500E-03  
GW    2     25  3.98000E-01  4.85970E-01  0.00000E+00  3.98000E-01 -4.85970E-01  0.00000E+00 7.87500E-03  
GW    3     25  5.68000E-01  4.68936E-01  0.00000E+00  5.68000E-01 -4.69637E-01  0.00000E+00 3.17500E-03  
GW    4     25  8.16000E-01  4.37874E-01  0.00000E+00  8.16000E-01 -4.37874E-01  0.00000E+00 3.17500E-03  
GW    5     25  1.12500E+00  4.47894E-01  0.00000E+00  1.12500E+00 -4.47894E-01  0.00000E+00 3.17500E-03  
GW    6     25  1.62700E+00  4.34868E-01  0.00000E+00  1.62700E+00 -4.34868E-01  0.00000E+00 3.17500E-03  
GW    7     25  5.17000E-01  0.00000E+00  5.03004E-01  5.17000E-01  0.00000E+00 -5.03004E-01 3.17500E-03  
GW    8     25  9.15000E-01  0.00000E+00 -4.85970E-01  9.15000E-01  0.00000E+00  4.85970E-01 7.87500E-03  
GW    9     25  1.08500E+00  0.00000E+00  4.68936E-01  1.08500E+00  0.00000E+00 -4.69637E-01 3.17500E-03  
GW    10    25  1.33300E+00  0.00000E+00  4.37874E-01  1.33300E+00  0.00000E+00 -4.37874E-01 3.17500E-03  
GW    11    25  1.64200E+00  0.00000E+00  4.47894E-01  1.64200E+00  0.00000E+00 -4.47894E-01 3.17500E-03  
GW    12    25  2.14400E+00  0.00000E+00  4.34868E-01  2.14400E+00  0.00000E+00 -4.34868E-01 3.17500E-03  
GM     0     0  0.00000E+00  0.00000E+00  0.00000E+00 0.00000E+00  0.00000E+00  0.00000E+00  0.00000E+00
GE     0     0  0.00000E+00  0.00000E+00  0.00000E+00  0.00000E+00  0.00000E+00  0.00000E+00  0.00000E+00
FR     0    40     0      0  1.44000E+02  1.00000E-01  0.00000E+00  0.00000E+00  0.00000E+00  0.00000E+00
EX     0     2    13      0  1.00000E+00  0.00000E+00  0.00000E+00  0.00000E+00  0.00000E+00  0.00000E+00
EX     0     8    13      0  1.00000E+00  0.00000E+00  0.00000E+00  0.00000E+00  0.00000E+00  0.00000E+00
LD     5     0     0      0  3.70000E+07  0.00000E+00  0.00000E+00  0.00000E+00  0.00000E+00  0.00000E+00
NH     0     0     0      0  0.00000E+00  0.00000E+00  0.00000E+00  0.00000E+00  0.00000E+00  0.00000E+00
NE     0    20    15      1 -1.40000E+00 -1.40000E+00  5.00000E-02  2.00000E-01  2.00000E-01  0.00000E+00
RP     0    37    73   1000  0.00000E+00  0.00000E+00  5.00000E+00  5.00000E+00  0.00000E+00  0.00000E+00
EN     0     0     0      0  0.00000E+00  0.00000E+00  0.00000E+00  0.00000E+00  0.00000E+00  0.00000E+00
