CM ON6MU antenna design
CM Adjuested manually by scaling to get a center f of 146MHz
CM Adjusted for a thicker driver, which flattens response
CM Folded the driver to get impedance close to 300 ohms
CM http://www.dxzone.com/cgi-bin/dir/jump2.cgi?ID=20267
CM FR     0    20     0      0  1.44000E+02  1.00000E-01  0.00000E+00  0.00000E+00  0.00000E+00  0.00000E+00
CE End Comments
GW     1    25  0.00000E+00  5.02000E-01  0.00000E+00  0.00000E+00 -5.02000E-01  0.00000E+00  3.17500E-03
GW     2    25  3.98000E-01  -0.46800   0.01937  3.98000E-01  0.46800   0.01937  0.00318
GW     3    25  3.98000E-01  -0.46800  -0.01937  3.98000E-01  0.46800  -0.01937  0.00318
GW     4     1  3.98000E-01  -0.46800   0.01937  3.98000E-01 -0.46800  -0.01937  0.00682
GW     5     1  3.98000E-01   0.46800   0.01937  3.98000E-01  0.46800  -0.01937  0.00682
GW     6    25  5.68000E-01  4.68000E-01  0.00000E+00  5.68000E-01 -4.68700E-01  0.00000E+00  3.17500E-03
GW     7    25  8.16000E-01  4.47000E-01  0.00000E+00  8.16000E-01 -4.47000E-01  0.00000E+00  3.17500E-03
GW     8    25  1.12500E+00  4.37000E-01  0.00000E+00  1.12500E+00 -4.37000E-01  0.00000E+00  3.17500E-03
GW     9    25  1.62700E+00  4.34000E-01  0.00000E+00  1.62700E+00 -4.34000E-01  0.00000E+00  3.17500E-03
GM     0     0  0.00000E+00  0.00000E+00  0.00000E+00 0.00000E+00  0.00000E+00  0.00000E+00  0.00000E+00
GE     0     0  0.00000E+00  0.00000E+00  0.00000E+00  0.00000E+00  0.00000E+00  0.00000E+00  0.00000E+00
FR     0    40     0      0  1.44000E+02  1.00000E-01  0.00000E+00  0.00000E+00  0.00000E+00  0.00000E+00
EX     0     2    13      0  1.00000E+00  0.00000E+00  0.00000E+00  0.00000E+00  0.00000E+00  0.00000E+00
LD     5     0     0      0  3.70000E+07  0.00000E+00  0.00000E+00  0.00000E+00  0.00000E+00  0.00000E+00
NH     0     0     0      0  0.00000E+00  0.00000E+00  0.00000E+00  0.00000E+00  0.00000E+00  0.00000E+00
NE     0    20    15      1 -1.40000E+00 -1.40000E+00  5.00000E-02  2.00000E-01  2.00000E-01  0.00000E+00
RP     0    37    73   1000  0.00000E+00  0.00000E+00  5.00000E+00  5.00000E+00  0.00000E+00  0.00000E+00
EN     0     0     0      0  0.00000E+00  0.00000E+00  0.00000E+00  0.00000E+00  0.00000E+00  0.00000E+00
