CM Generated by a python script
CM ON6MU antenna design
CM Adjusted manually by scaling to get a center f of 145MHz
CM Thicker driven element to flatten SWR
CM Crossed elements offset by 20mm in X dimension
CE End Comments
GW     1    25  0.00000E+00  0.50200  0.00000E+00  0.00000E+00 -0.50200  0.00000E+00  3.17500E-03
GW     2    25  3.98000E-01  -0.47500   0.02540  3.98000E-01  0.47500   0.02540  0.00318
GW     3    25  3.98000E-01  -0.47500  -0.02540  3.98000E-01  0.47500  -0.02540  0.00318
GW     4     5  3.98000E-01  -0.47500   0.02540  3.98000E-01 -0.47500  -0.02540  0.00635
GW     5     5  3.98000E-01   0.47500   0.02540  3.98000E-01  0.47500  -0.02540  0.00635
GW     6    25  5.68000E-01  0.46800  0.00000E+00  5.68000E-01 -0.46800  0.00000E+00  3.17500E-03
GW     7    25  8.16000E-01  0.43700  0.00000E+00  8.16000E-01 -0.43700  0.00000E+00  3.17500E-03
GW     8    25  1.12500E+00  0.44700  0.00000E+00  1.12500E+00 -0.44700  0.00000E+00  3.17500E-03
GW     9    25  1.62700E+00  0.43400  0.00000E+00  1.62700E+00 -0.43400  0.00000E+00  3.17500E-03
GW    10    25  5.17000E-01  0.00000E+00  0.50200  5.17000E-01  0.00000E+00 -0.50200  3.17500E-03
GW    11    25  9.15000E-01   0.02540  -0.47500  9.15000E-01  0.02540   0.47500 0.00318
GW    12    25  9.15000E-01  -0.02540  -0.47500  9.15000E-01 -0.02540   0.47500 0.00318
GW    13     5  9.15000E-01   0.02540  -0.47500  9.15000E-01 -0.02540  -0.47500 0.00318
GW    14     5  9.15000E-01   0.02540  0.475000  9.15000E-01 -0.02540   0.47500 0.00318
GW    15    25  1.08500E+00  0.00000E+00  0.46800  1.08500E+00  0.00000E+00 -0.46800  3.17500E-03
GW    16    25  1.33300E+00  0.00000E+00  0.43700  1.33300E+00  0.00000E+00 -0.43700  3.17500E-03
GW    17    25  1.64200E+00  0.00000E+00  0.44700  1.64200E+00  0.00000E+00 -0.44700  3.17500E-03
GW    18    25  2.14400E+00  0.00000E+00  0.43400  2.14400E+00  0.00000E+00 -0.43400  3.17500E-03
GM     0     0  0.00000E+00  0.00000E+00  0.00000E+00 0.00000E+00  0.00000E+00  0.00000E+00  0.00000E+00
GE     0     0  0.00000E+00  0.00000E+00  0.00000E+00  0.00000E+00  0.00000E+00  0.00000E+00  0.00000E+00
FR     0    40     0      0  144.00000  1.00000E-01  0.00000E+00  0.00000E+00  0.00000E+00  0.00000E+00
EX     0     2    13      0  1.00000E+00  0.00000E+00  0.00000E+00  0.00000E+00  0.00000E+00  0.00000E+00
EX     0    11    13      0  1.00000E+00  0.00000E+00  0.00000E+00  0.00000E+00  0.00000E+00  0.00000E+00
LD     5     0     0      0  3.70000E+07  0.00000E+00  0.00000E+00  0.00000E+00  0.00000E+00  0.00000E+00
NH     0     0     0      0  0.00000E+00  0.00000E+00  0.00000E+00  0.00000E+00  0.00000E+00  0.00000E+00
NE     0    20    15      1 -1.40000E+00 -1.40000E+00  5.00000E-02  2.00000E-01  2.00000E-01  0.00000E+00
RP     0    37    73   1000  0.00000E+00  0.00000E+00  5.00000E+00  5.00000E+00  0.00000E+00  0.00000E+00
EN     0     0     0      0  0.00000E+00  0.00000E+00  0.00000E+00  0.00000E+00  0.00000E+00  0.00000E+00
