CM Test generated by a python script
CM     topdia = 0.62500 in
CM     botdia = 0.62500 in
CM     enddia = 0.53700 in
CM     topoff = 0.95000 in
CM     botoff = -0.95000 in
CM     drivenlength = 36.25000 in
CE End Comments
GW     1    25  3.98000E-01  -0.46038  0.02413  3.98000E-01 0.46038  0.02413  0.00794
GW     2    25  3.98000E-01  -0.46038  -0.02413  3.98000E-01 0.46038  -0.02413  0.00794
GW     3     1  3.98000E-01  -0.46038  0.02413 3.98000E-01  -0.46038  -0.02413  0.00682
GW     4     1  3.98000E-01  0.46038  0.02413 3.98000E-01  0.46038  -0.02413  0.00682
GM     0     0  0.00000E+00  0.00000E+00  0.00000E+00 0.00000E+00  0.00000E+00  0.00000E+00  0.00000E+00
GE     0     0  0.00000E+00  0.00000E+00  0.00000E+00  0.00000E+00  0.00000E+00  0.00000E+00  0.00000E+00
FR     0    40     0      0  1.44000E+02  1.00000E-01  0.00000E+00  0.00000E+00  0.00000E+00  0.00000E+00
EX     0     1    13      0  1.00000E+00  0.00000E+00  0.00000E+00  0.00000E+00  0.00000E+00  0.00000E+00
LD     5     0     0      0  3.70000E+07  0.00000E+00  0.00000E+00  0.00000E+00  0.00000E+00  0.00000E+00
NH     0     0     0      0  0.00000E+00  0.00000E+00  0.00000E+00  0.00000E+00  0.00000E+00  0.00000E+00
NE     0    20    15      1 -1.40000E+00 -1.40000E+00  5.00000E-02  2.00000E-01  2.00000E-01  0.00000E+00
RP     0    37    73   1000  0.00000E+00  0.00000E+00  5.00000E+00  5.00000E+00  0.00000E+00  0.00000E+00
EN     0     0     0      0  0.00000E+00  0.00000E+00  0.00000E+00  0.00000E+00  0.00000E+00  0.00000E+00
